ABL_AF3_prediction
  PyMOL3.1          3D                             0

 47 49  0  0  0  0  0  0  0  0999 V2000
   -3.1520    1.5580   10.1630 P   0  0  0  0  0  0  0  0  0  0  0  0
   -1.3870    3.6110   11.1460 P   0  0  0  0  0  0  0  0  0  0  0  0
    1.2910    3.1530   10.3020 P   0  0  0  0  0  0  0  0  0  0  0  0
   -2.7030   -0.1320   12.0790 C   0  0  0  0  0  0  0  0  0  0  0  0
   -3.6170    0.3960   11.1420 O   0  0  0  0  0  0  0  0  0  0  0  0
   -3.0520   -1.5740   12.3960 C   0  0  0  0  0  0  0  0  0  0  0  0
   -4.3670   -1.6450   13.0010 O   0  0  0  0  0  0  0  0  0  0  0  0
   -3.1300   -2.4750   11.1810 C   0  0  0  0  0  0  0  0  0  0  0  0
   -1.8600   -2.9720   10.7820 O   0  0  0  0  0  0  0  0  0  0  0  0
   -4.0560   -3.5720   11.6880 C   0  0  0  0  0  0  0  0  0  0  0  0
   -3.3380   -4.5150   12.4760 O   0  0  0  0  0  0  0  0  0  0  0  0
   -5.0440   -2.8040   12.5670 C   0  0  0  0  0  0  0  0  0  0  0  0
   -9.7310   -4.1350   10.8040 N   0  0  0  0  0  0  0  0  0  0  0  0
   -4.3540    2.0700    9.4430 O   0  0  0  0  0  0  0  0  0  0  0  0
   -1.5840    4.5610   10.0030 O   0  0  0  0  0  0  0  0  0  0  0  0
    1.6330    4.4940   10.8970 O   0  0  0  0  0  0  0  0  0  0  0  0
   -8.8590   -4.8220   11.5650 C   0  0  0  0  0  0  0  0  0  0  0  0
   -2.0370    1.0580    9.3320 O   0  0  0  0  0  0  0  0  0  0  0  0
   -1.2580    4.2450   12.5040 O   0  0  0  0  0  0  0  0  0  0  0  0
    1.1330    3.2210    8.8210 O   0  0  0  0  0  0  0  0  0  0  0  0
   -7.6710   -4.3660   11.9710 N   0  0  0  0  0  0  0  0  0  0  0  0
   -2.6600    2.6510   11.2090 O   0  0  0  0  0  0  0  0  0  0  0  0
   -0.1360    2.6920   10.8950 O   0  0  0  0  0  0  0  0  0  0  0  0
    2.2440    2.0750   10.7400 O   0  0  0  0  0  0  0  0  0  0  0  0
   -7.3280   -3.1260   11.5730 C   0  0  0  0  0  0  0  0  0  0  0  0
   -8.1820   -2.3280   10.7650 C   0  0  0  0  0  0  0  0  0  0  0  0
   -9.4390   -2.8860   10.3760 C   0  0  0  0  0  0  0  0  0  0  0  0
  -10.3150   -2.2140    9.6180 N   0  0  0  0  0  0  0  0  0  0  0  0
   -7.5750   -1.1420   10.5280 N   0  0  0  0  0  0  0  0  0  0  0  0
   -6.3990   -1.2070   11.1500 C   0  0  0  0  0  0  0  0  0  0  0  0
   -6.2260   -2.3940   11.7910 N   0  0  0  0  0  0  0  0  0  0  0  0
  -11.4710   -2.2430    9.8310 H   0  0  0  0  0  0  0  0  0  0  0  0
   -9.8930   -1.2610    9.0510 H   0  0  0  0  0  0  0  0  0  0  0  0
   -3.1750   -4.1080   13.5740 H   0  0  0  0  0  0  0  0  0  0  0  0
   -1.0010   -2.4050   11.3660 H   0  0  0  0  0  0  0  0  0  0  0  0
   -1.5880    0.0750    9.8370 H   0  0  0  0  0  0  0  0  0  0  0  0
   -0.1440    4.1550   12.8350 H   0  0  0  0  0  0  0  0  0  0  0  0
    1.9730    3.9340    8.3940 H   0  0  0  0  0  0  0  0  0  0  0  0
    3.3500    2.3990   10.4650 H   0  0  0  0  0  0  0  0  0  0  0  0
   -8.9650   -5.8390   12.1650 H   0  0  0  0  0  0  0  0  0  0  0  0
   -5.9330   -0.2540   10.6170 H   0  0  0  0  0  0  0  0  0  0  0  0
   -5.4320   -3.4660   13.4750 H   0  0  0  0  0  0  0  0  0  0  0  0
   -4.5530   -4.4100   11.0080 H   0  0  0  0  0  0  0  0  0  0  0  0
   -3.4770   -2.0570   10.1230 H   0  0  0  0  0  0  0  0  0  0  0  0
   -2.2860   -1.9310   13.2360 H   0  0  0  0  0  0  0  0  0  0  0  0
   -1.5190    0.0030   12.0660 H   0  0  0  0  0  0  0  0  0  0  0  0
   -3.0730    0.5480   12.9820 H   0  0  0  0  0  0  0  0  0  0  0  0
  1  5  1  0  0  0  0
  1 14  1  0  0  0  0
  1 18  1  0  0  0  0
  1 22  1  0  0  0  0
  2 15  1  0  0  0  0
  2 19  1  0  0  0  0
  2 22  1  0  0  0  0
  2 23  1  0  0  0  0
  3 16  1  0  0  0  0
  3 20  1  0  0  0  0
  3 23  1  0  0  0  0
  3 24  1  0  0  0  0
  4  5  1  0  0  0  0
  4  6  1  0  0  0  0
  4 46  1  0  0  0  0
  4 47  1  0  0  0  0
  6  7  1  0  0  0  0
  6  8  1  0  0  0  0
  6 45  1  0  0  0  0
  7 12  1  0  0  0  0
  8  9  1  0  0  0  0
  8 10  1  0  0  0  0
  8 44  1  0  0  0  0
  9 35  1  0  0  0  0
 10 11  1  0  0  0  0
 10 12  1  0  0  0  0
 10 43  1  0  0  0  0
 11 34  1  0  0  0  0
 12 31  1  0  0  0  0
 12 42  1  0  0  0  0
 13 17  4  0  0  0  0
 13 27  4  0  0  0  0
 17 21  4  0  0  0  0
 17 40  1  0  0  0  0
 18 36  1  0  0  0  0
 19 37  1  0  0  0  0
 20 38  1  0  0  0  0
 21 25  4  0  0  0  0
 24 39  1  0  0  0  0
 25 26  4  0  0  0  0
 25 31  4  0  0  0  0
 26 27  4  0  0  0  0
 26 29  4  0  0  0  0
 27 28  1  0  0  0  0
 28 32  1  0  0  0  0
 28 33  1  0  0  0  0
 29 30  4  0  0  0  0
 30 31  4  0  0  0  0
 30 41  1  0  0  0  0
M  END
>  <pdb_header>
REMARK   1 CREATED WITH OPENMM 8.2, 2025-06-04


$$$$
